853180
  -OEChem-07111216293D

 18 17  0     1  0  0  0  0  0999 V2000
   -0.1819    1.6831    0.1258 O   0  0  0  0  0  0  0  0  0  0  0  0
    1.6954   -1.3124    0.5971 O   0  0  0  0  0  0  0  0  0  0  0  0
    2.0585    0.5613   -0.6288 O   0  0  0  0  0  0  0  0  0  0  0  0
   -1.1686   -0.5377    0.0715 C   0  0  0  0  0  0  0  0  0  0  0  0
   -0.0257    0.3474    0.6041 C   0  0  1  0  0  0  0  0  0  0  0  0
   -1.1763   -0.5579   -1.4622 C   0  0  0  0  0  0  0  0  0  0  0  0
   -2.5409   -0.0892    0.5782 C   0  0  0  0  0  0  0  0  0  0  0  0
    1.3395   -0.0946    0.1144 C   0  0  0  0  0  0  0  0  0  0  0  0
   -1.0012   -1.5654    0.4183 H   0  0  0  0  0  0  0  0  0  0  0  0
   -0.0162    0.3837    1.6980 H   0  0  0  0  0  0  0  0  0  0  0  0
   -0.2174   -0.8889   -1.8724 H   0  0  0  0  0  0  0  0  0  0  0  0
   -1.4171    0.4210   -1.8889 H   0  0  0  0  0  0  0  0  0  0  0  0
   -1.9365   -1.2605   -1.8230 H   0  0  0  0  0  0  0  0  0  0  0  0
   -2.7900    0.9186    0.2295 H   0  0  0  0  0  0  0  0  0  0  0  0
   -3.3251   -0.7700    0.2303 H   0  0  0  0  0  0  0  0  0  0  0  0
   -2.5636   -0.0842    1.6730 H   0  0  0  0  0  0  0  0  0  0  0  0
   -0.0795    1.6866   -0.8403 H   0  0  0  0  0  0  0  0  0  0  0  0
    2.5802   -1.5888    0.2762 H   0  0  0  0  0  0  0  0  0  0  0  0
  1  5  1  0  0  0  0
  1 17  1  0  0  0  0
  2  8  1  0  0  0  0
  2 18  1  0  0  0  0
  3  8  2  0  0  0  0
  4  5  1  0  0  0  0
  4  6  1  0  0  0  0
  4  7  1  0  0  0  0
  4  9  1  0  0  0  0
  5  8  1  0  0  0  0
  5 10  1  0  0  0  0
  6 11  1  0  0  0  0
  6 12  1  0  0  0  0
  6 13  1  0  0  0  0
  7 14  1  0  0  0  0
  7 15  1  0  0  0  0
  7 16  1  0  0  0  0
M  END
> <PUBCHEM_COMPOUND_CID>
853180

> <PUBCHEM_CONFORMER_RMSD>
0.4

> <PUBCHEM_CONFORMER_DIVERSEORDER>
1
4
6
2
5
3
8
7

> <PUBCHEM_MMFF94_PARTIAL_CHARGES>
7
1 -0.68
17 0.4
18 0.5
2 -0.65
3 -0.57
5 0.34
8 0.66

> <PUBCHEM_EFFECTIVE_ROTOR_COUNT>
2

> <PUBCHEM_PHARMACOPHORE_FEATURES>
6
1 1 acceptor
1 1 donor
1 2 acceptor
1 3 acceptor
3 2 3 8 anion
3 4 6 7 hydrophobe

> <PUBCHEM_HEAVY_ATOM_COUNT>
8

> <PUBCHEM_ATOM_DEF_STEREO_COUNT>
1

> <PUBCHEM_ATOM_UDEF_STEREO_COUNT>
0

> <PUBCHEM_BOND_DEF_STEREO_COUNT>
0

> <PUBCHEM_BOND_UDEF_STEREO_COUNT>
0

> <PUBCHEM_ISOTOPIC_ATOM_COUNT>
0

> <PUBCHEM_COMPONENT_COUNT>
1

> <PUBCHEM_CACTVS_TAUTO_COUNT>
1

> <PUBCHEM_CONFORMER_ID>
000D04BC00000001

> <PUBCHEM_MMFF94_ENERGY>
6.7073

> <PUBCHEM_FEATURE_SELFOVERLAP>
30.515

> <PUBCHEM_SHAPE_FINGERPRINT>
137420 1 7984105647943152633
16714656 1 17821996623368540045
18185500 45 18261120625204926302
21040471 1 16805314526744204423
23552423 10 18129375063274552818
24536 1 17916603027643885728
29004967 10 18272930496783850057

> <PUBCHEM_SHAPE_MULTIPOLES>
147.03
2.82
1.18
1.04
0.27
0.23
0.19
-0.28
-0.27
-0.05
0.1
0.1
-0.24
-0.43

> <PUBCHEM_SHAPE_SELFOVERLAP>
273.204

> <PUBCHEM_SHAPE_VOLUME>
93

> <PUBCHEM_COORDINATE_TYPE>
2
5
10

$$$$
