556677
  -OEChem-07111216483D

 25 25  0     0  0  0  0  0  0999 V2000
    1.5939   -0.8012   -0.0901 O   0  0  0  0  0  0  0  0  0  0  0  0
   -3.8238    0.5374    0.0289 O   0  0  0  0  0  0  0  0  0  0  0  0
    2.6396    0.9233    1.0365 O   0  0  0  0  0  0  0  0  0  0  0  0
    0.2938   -0.3948    0.3229 C   0  0  0  0  0  0  0  0  0  0  0  0
   -0.0995    0.8888   -0.4078 C   0  0  0  0  0  0  0  0  0  0  0  0
   -0.6874   -1.5285    0.0311 C   0  0  0  0  0  0  0  0  0  0  0  0
   -2.5166    0.1592   -0.3884 C   0  0  0  0  0  0  0  0  0  0  0  0
   -1.5353    1.2943   -0.0970 C   0  0  0  0  0  0  0  0  0  0  0  0
   -2.1227   -1.1226    0.3433 C   0  0  0  0  0  0  0  0  0  0  0  0
    2.5962    0.1011    0.1313 C   0  0  0  0  0  0  0  0  0  0  0  0
    3.6617   -0.0571   -0.9106 C   0  0  0  0  0  0  0  0  0  0  0  0
    0.3065   -0.2192    1.4070 H   0  0  0  0  0  0  0  0  0  0  0  0
    0.0200    0.7480   -1.4902 H   0  0  0  0  0  0  0  0  0  0  0  0
    0.5607    1.7217   -0.1440 H   0  0  0  0  0  0  0  0  0  0  0  0
   -0.4119   -2.4162    0.6131 H   0  0  0  0  0  0  0  0  0  0  0  0
   -0.6051   -1.8275   -1.0221 H   0  0  0  0  0  0  0  0  0  0  0  0
   -2.5503   -0.0232   -1.4693 H   0  0  0  0  0  0  0  0  0  0  0  0
   -1.6195    1.5947    0.9556 H   0  0  0  0  0  0  0  0  0  0  0  0
   -1.8125    2.1802   -0.6808 H   0  0  0  0  0  0  0  0  0  0  0  0
   -2.8085   -1.9335    0.0697 H   0  0  0  0  0  0  0  0  0  0  0  0
   -2.2445   -0.9840    1.4256 H   0  0  0  0  0  0  0  0  0  0  0  0
   -4.4250   -0.1957   -0.1870 H   0  0  0  0  0  0  0  0  0  0  0  0
    3.2409    0.1310   -1.9015 H   0  0  0  0  0  0  0  0  0  0  0  0
    4.0864   -1.0626   -0.8567 H   0  0  0  0  0  0  0  0  0  0  0  0
    4.4592    0.6687   -0.7272 H   0  0  0  0  0  0  0  0  0  0  0  0
  1  4  1  0  0  0  0
  1 10  1  0  0  0  0
  2  7  1  0  0  0  0
  2 22  1  0  0  0  0
  3 10  2  0  0  0  0
  4  5  1  0  0  0  0
  4  6  1  0  0  0  0
  4 12  1  0  0  0  0
  5  8  1  0  0  0  0
  5 13  1  0  0  0  0
  5 14  1  0  0  0  0
  6  9  1  0  0  0  0
  6 15  1  0  0  0  0
  6 16  1  0  0  0  0
  7  8  1  0  0  0  0
  7  9  1  0  0  0  0
  7 17  1  0  0  0  0
  8 18  1  0  0  0  0
  8 19  1  0  0  0  0
  9 20  1  0  0  0  0
  9 21  1  0  0  0  0
 10 11  1  0  0  0  0
 11 23  1  0  0  0  0
 11 24  1  0  0  0  0
 11 25  1  0  0  0  0
M  END
> <PUBCHEM_COMPOUND_CID>
556677

> <PUBCHEM_CONFORMER_RMSD>
0.6

> <PUBCHEM_CONFORMER_DIVERSEORDER>
1
5
18
4
17
9
7
8
11
13
10
3
16
2
15
6
14
12

> <PUBCHEM_MMFF94_PARTIAL_CHARGES>
8
1 -0.43
10 0.66
11 0.06
2 -0.68
22 0.4
3 -0.57
4 0.28
7 0.28

> <PUBCHEM_EFFECTIVE_ROTOR_COUNT>
3.2

> <PUBCHEM_PHARMACOPHORE_FEATURES>
4
1 2 acceptor
1 2 donor
1 3 acceptor
6 4 5 6 7 8 9 rings

> <PUBCHEM_HEAVY_ATOM_COUNT>
11

> <PUBCHEM_ATOM_DEF_STEREO_COUNT>
0

> <PUBCHEM_ATOM_UDEF_STEREO_COUNT>
0

> <PUBCHEM_BOND_DEF_STEREO_COUNT>
0

> <PUBCHEM_BOND_UDEF_STEREO_COUNT>
0

> <PUBCHEM_ISOTOPIC_ATOM_COUNT>
0

> <PUBCHEM_COMPONENT_COUNT>
1

> <PUBCHEM_CACTVS_TAUTO_COUNT>
1

> <PUBCHEM_CONFORMER_ID>
00087E8500000001

> <PUBCHEM_MMFF94_ENERGY>
15.8778

> <PUBCHEM_FEATURE_SELFOVERLAP>
20.297

> <PUBCHEM_SHAPE_FINGERPRINT>
10857977 72 18270968946596690129
11062470 55 15626221325223025677
12897270 3 18408323293629290846
12932764 1 18333450924128578434
14325111 11 18412546543397825925
14390081 3 18335708242716451448
14993402 34 18060135435949852741
15775835 57 18202281428807298064
16945 1 18271814509719522621
17846911 113 18411149042855212817
18175812 5 18187645777990364390
18186145 218 18113904887464007937
20201158 50 18113333133022763254
20645464 45 18187939339105285730
20871998 184 18262513672436659719
23235685 24 18341336664567288125
23402655 69 18196109935483648389
23552423 10 17915740864472519052
2748010 2 18124319298514695293
3248919 1 17489314053168729010
369184 2 18410018731863924307
6333449 129 18408890602948273751

> <PUBCHEM_SHAPE_MULTIPOLES>
208.77
5.63
1.33
0.8
1.51
0.16
-0.02
-0.78
0.52
-0.57
-0.05
0.45
-0.07
0.28

> <PUBCHEM_SHAPE_SELFOVERLAP>
409.652

> <PUBCHEM_SHAPE_VOLUME>
124.1

> <PUBCHEM_COORDINATE_TYPE>
2
5
10

$$$$
